
**** 06/01/21 12:59:21 ******* PSpice 17.4.0 (Nov 2018) ******* ID# 0 ********

 ** Profile: "SCHEMATIC1-bias"  [ C:\Users\Andre\Desktop\Test\test-pspicefiles\schematic1\bias.sim ] 


 ****     CIRCUIT DESCRIPTION


******************************************************************************




** Creating circuit file "bias.cir" 
** WARNING: THIS AUTOMATICALLY GENERATED FILE MAY BE OVERWRITTEN BY SUBSEQUENT SIMULATIONS

*Libraries: 
* Profile Libraries :
* Local Libraries :
* From [PSPICE NETLIST] section of C:\Users\Andre\AppData\Roaming\SPB_Data\cdssetup\OrCAD_PSpice\17.4.0\PSpice.ini file:
.lib "nom.lib" 

*Analysis directives: 
.OPTIONS ADVCONV
.PROBE64 V(alias(*)) I(alias(*)) W(alias(*)) D(alias(*)) NOISE(alias(*)) 
.INC "..\SCHEMATIC1.net" 



**** INCLUDING SCHEMATIC1.net ****
* source TEST
X_D2         N14737 N14709 MMSZ5243BT1
X_M2         N14761 N145451 N14709 SI4483EDY
R_R1         0 N145451 1k
V_V1         M_UN0001 M_UN0002 24Vdc

**** RESUMING bias.cir ****
.END

ERROR(ORPSIM-15141): Less than 2 connections at node M_UN0001.

ERROR(ORPSIM-15141): Less than 2 connections at node M_UN0002.

ERROR(ORPSIM-15142): Node M_UN0001 is floating

ERROR(ORPSIM-15142): Node M_UN0002 is floating
